CRYSTAL
PRIMVEC
 6.31049000000000 0.00000000000000 0.00000000000000
 0.00000000000000 56.08433329450875 0.00000000000000
 0.00000000000000 0.00000000000000 56.08433329450875
PRIMCOORD
 120 1
 72     0.00000000000000    24.45843262779336    39.07176584056442
 72     3.15524500000000    22.77714489102498    38.37535365774339
 16     1.05176936830000    23.43314288866904    37.08788509597682
 16     4.20701436830000    24.90494974580409    37.69752745739587
 16     2.10347563170000    24.01191550978264    40.44600422373296
 16     5.25872063170000    22.12114689338092    39.66282221950996
 72     0.00000000000000    21.22549946350036    37.42450411684258
 72     3.15524500000000    19.84170300526109    36.24263028924767
 16     1.05176936830000    20.86344384090639    35.22088945360237
 16     4.20701436830000    22.07482549294322    36.25550712533185
 16     2.10347563170000    20.37617343405749    38.59350110835330
 16     5.25872063170000    18.81996216961580    37.26437112489297
 72     0.00000000000000    18.65982917766618    34.85883383100840
 72     3.15524500000000    17.70897963676537    33.30718840348378
 16     1.05176936830000    18.99644819853194    32.65119040583972
 16     4.20701436830000    19.82882616917691    34.00950780156554
 16     2.10347563170000    17.49083218615545    35.70815986045126
 16     5.25872063170000    16.42151107499880    33.96318640112784
 72     0.00000000000000    17.01256745394433    31.62590066671538
 72     3.15524500000000    16.58774060840365    29.85636950465654
 16     1.05176936830000    18.01491050314485    29.63032799962993
 16     4.20701436830000    18.38680583711288    31.17938354870466
 16     2.10347563170000    15.63832907077579    32.07241778472611
 16     5.25872063170000    15.16057071366245    30.08241100968315
 72     0.00000000000000    16.44495974700000    28.04216664725437
 72     3.15524500000000    16.58774060840365    26.22796378985221
 16     1.05176936830000    18.01491050314485    26.45400529487882
 16     4.20701436830000    17.88991949400000    28.04216664725437
 16     2.10347563170000    15.00000000000000    28.04216664725437
 16     5.25872063170000    15.16057071366245    26.00192228482559
 72     0.00000000000000    17.01256745394434    24.45843262779337
 72     3.15524500000000    17.70897963676537    22.77714489102497
 16     1.05176936830000    18.99644819853194    23.43314288866903
 16     4.20701436830000    18.38680583711288    24.90494974580409
 16     2.10347563170000    15.63832907077579    24.01191550978264
 16     5.25872063170000    16.42151107499880    22.12114689338091
 72     0.00000000000000    18.65982917766618    21.22549946350035
 72     3.15524500000000    19.84170300526109    19.84170300526108
 16     1.05176936830000    20.86344384090639    20.86344384090638
 16     4.20701436830000    19.82882616917691    22.07482549294321
 16     2.10347563170000    17.49083218615546    20.37617343405748
 16     5.25872063170000    18.81996216961579    18.81996216961578
 72     0.00000000000000    21.22549946350034    18.65982917766618
 72     3.15524500000000    22.77714489102497    17.70897963676537
 16     1.05176936830000    23.43314288866903    18.99644819853194
 16     4.20701436830000    22.07482549294321    19.82882616917691
 16     2.10347563170000    20.37617343405748    17.49083218615546
 16     5.25872063170000    22.12114689338091    16.42151107499880
 72     0.00000000000000    24.45843262779336    17.01256745394434
 72     3.15524500000000    26.22796378985221    16.58774060840365
 16     1.05176936830000    26.45400529487882    18.01491050314485
 16     4.20701436830000    24.90494974580409    18.38680583711288
 16     2.10347563170000    24.01191550978264    15.63832907077579
 16     5.25872063170000    26.00192228482560    15.16057071366245
 72     0.00000000000000    28.04216664725438    16.44495974700000
 72     3.15524500000000    29.85636950465654    16.58774060840365
 16     1.05176936830000    29.63032799962993    18.01491050314485
 16     4.20701436830000    28.04216664725438    17.88991949400000
 16     2.10347563170000    28.04216664725438    15.00000000000000
 16     5.25872063170000    30.08241100968316    15.16057071366245
 72     0.00000000000000    31.62590066671538    17.01256745394433
 72     3.15524500000000    33.30718840348378    17.70897963676537
 16     1.05176936830000    32.65119040583972    18.99644819853194
 16     4.20701436830000    31.17938354870466    18.38680583711288
 16     2.10347563170000    32.07241778472611    15.63832907077579
 16     5.25872063170000    33.96318640112784    16.42151107499880
 72     0.00000000000000    34.85883383100840    18.65982917766618
 72     3.15524500000000    36.24263028924766    19.84170300526109
 16     1.05176936830000    35.22088945360237    20.86344384090638
 16     4.20701436830000    34.00950780156554    19.82882616917691
 16     2.10347563170000    35.70815986045127    17.49083218615546
 16     5.25872063170000    37.26437112489296    18.81996216961579
 72     0.00000000000000    37.42450411684257    21.22549946350035
 72     3.15524500000000    38.37535365774338    22.77714489102497
 16     1.05176936830000    37.08788509597681    23.43314288866903
 16     4.20701436830000    36.25550712533185    22.07482549294321
 16     2.10347563170000    38.59350110835329    20.37617343405748
 16     5.25872063170000    39.66282221950996    22.12114689338091
 72     0.00000000000000    39.07176584056442    24.45843262779337
 72     3.15524500000000    39.49659268610510    26.22796378985221
 16     1.05176936830000    38.06942279136390    26.45400529487882
 16     4.20701436830000    37.69752745739587    24.90494974580409
 16     2.10347563170000    40.44600422373296    24.01191550978264
 16     5.25872063170000    40.92376258084630    26.00192228482560
 72     0.00000000000000    39.63937354750875    28.04216664725438
 72     3.15524500000000    39.49659268610510    29.85636950465654
 16     1.05176936830000    38.06942279136390    29.63032799962993
 16     4.20701436830000    38.19441380050875    28.04216664725438
 16     2.10347563170000    41.08433329450875    28.04216664725438
 16     5.25872063170000    40.92376258084630    30.08241100968315
 72     0.00000000000000    39.07176584056442    31.62590066671538
 72     3.15524500000000    38.37535365774338    33.30718840348378
 16     1.05176936830000    37.08788509597681    32.65119040583972
 16     4.20701436830000    37.69752745739587    31.17938354870466
 16     2.10347563170000    40.44600422373296    32.07241778472611
 16     5.25872063170000    39.66282221950996    33.96318640112784
 72     0.00000000000000    37.42450411684257    34.85883383100840
 72     3.15524500000000    36.24263028924766    36.24263028924766
 16     1.05176936830000    35.22088945360237    35.22088945360237
 16     4.20701436830000    36.25550712533185    34.00950780156554
 16     2.10347563170000    38.59350110835329    35.70815986045127
 16     5.25872063170000    37.26437112489296    37.26437112489296
 72     0.00000000000000    34.85883383100840    37.42450411684257
 72     3.15524500000000    33.30718840348378    38.37535365774338
 16     1.05176936830000    32.65119040583972    37.08788509597681
 16     4.20701436830000    34.00950780156554    36.25550712533185
 16     2.10347563170000    35.70815986045127    38.59350110835329
 16     5.25872063170000    33.96318640112784    39.66282221950996
 72     0.00000000000000    31.62590066671538    39.07176584056442
 72     3.15524500000000    29.85636950465654    39.49659268610510
 16     1.05176936830000    29.63032799962993    38.06942279136390
 16     4.20701436830000    31.17938354870466    37.69752745739587
 16     2.10347563170000    32.07241778472611    40.44600422373296
 16     5.25872063170000    30.08241100968316    40.92376258084630
 72     0.00000000000000    28.04216664725438    39.63937354750875
 72     3.15524500000000    26.22796378985221    39.49659268610510
 16     1.05176936830000    26.45400529487882    38.06942279136390
 16     4.20701436830000    28.04216664725438    38.19441380050875
 16     2.10347563170000    28.04216664725438    41.08433329450875
 16     5.25872063170000    26.00192228482559    40.92376258084630
